/*--------------------------------*- C++ -*----------------------------------*\
| =========                 |                                                 |
| \\      /  F ield         | OpenFOAM Extend Project: Open Source CFD        |
|  \\    /   O peration     | Version:  4.0		                              |
|   \\  /    A nd           | Web:      						              |
|    \\/     M anipulation  |                                                 |
\*---------------------------------------------------------------------------*/
FoamFile
{
	version 2.0;
	format ascii;
	class dictionary;
	location "system";
	object topoSetDict;
}

// * * * * * * * * * * * * * * * * * * * * * * * * * * * * * * * * * * * * * //

actions
(
  {
    name    refine;
    type    cellSet;
    action  new;
    source  boxToCell;
    sourceInfo
    {
      box 
        ( -5e-4 -1 -1) 
        (  5e-4  1  1)
        ;
    }
  }
);

// ************************************************************************* //
